@<TRIPOS>MOLECULE
10a.log
 38 40 0 0 0
SMALL
USER_CHARGES
****
Gaussian 16 #p b3lyp/6-311g(d,p) pop=(chelpg,readradii)
@<TRIPOS>ATOM
      1 C          -1.5643   -1.5490   -0.5238 C.ar    1  UNL1       -0.0830
      2 C          -0.7028   -0.7567    0.1878 C.ar    1  UNL1        0.0581
      3 C           0.4694   -1.3752    0.8047 C.ar    1  UNL1        0.3047
      4 N           0.7100   -2.6815    0.6993 N.ar    1  UNL1       -0.4041
      5 N          -0.1179   -3.4380    0.0209 N.ar    1  UNL1       -0.1479
      6 C          -1.2928   -2.9947   -0.6409 C.ar    1  UNL1        0.5395
      7 O          -1.9707   -3.8413   -1.2436 O.2     1  UNL1       -0.5642
      8 BR         -3.0898   -0.8792   -1.3611 Br      1  UNL1       -0.0139
      9 H           0.1252   -4.4124   -0.0173 H       1  UNL1        0.3137
     10 C          -0.9243    0.6847    0.3359 C.ar    1  UNL1       -0.0539
     11 C          -1.6284    1.2103    1.4441 C.ar    1  UNL1        0.3340
     12 C          -1.8526    2.5899    1.5527 C.ar    1  UNL1       -0.2324
     13 C          -1.3748    3.4508    0.5695 C.ar    1  UNL1       -0.1040
     14 C          -0.6703    2.9369   -0.5227 C.ar    1  UNL1        0.0387
     15 C          -0.4469    1.5625   -0.6417 C.ar    1  UNL1       -0.0466
     16 O          -2.0423    0.2899    2.3827 O.3     1  UNL1       -0.3688
     17 C          -2.8970    0.7762    3.4139 C.3     1  UNL1        0.0440
     18 CL         -0.0820    3.9888   -1.7198 Cl      1  UNL1       -0.1033
     19 C           1.4386   -0.5327    1.5904 C.3     1  UNL1       -0.0862
     20 C           2.7422   -0.3779    0.8848 C.ar    1  UNL1        0.1029
     21 C           2.9806    0.7391    0.0763 C.ar    1  UNL1       -0.1653
     22 C           4.2025    0.9042   -0.5674 C.ar    1  UNL1       -0.1984
     23 C           5.2071   -0.0671   -0.4024 C.ar    1  UNL1        0.3236
     24 C           4.9750   -1.1955    0.4060 C.ar    1  UNL1       -0.2145
     25 C           3.7466   -1.3405    1.0414 C.ar    1  UNL1       -0.1259
     26 F           6.4012    0.0845   -1.0235 F       1  UNL1       -0.2161
     27 H          -2.4057    3.0024    2.4087 H       1  UNL1        0.1466
     28 H          -1.5538    4.5341    0.6563 H       1  UNL1        0.1223
     29 H           0.1003    1.1620   -1.5109 H       1  UNL1        0.0657
     30 H          -3.1633   -0.1512    3.9826 H       1  UNL1        0.0873
     31 H          -3.8106    1.2514    2.9821 H       1  UNL1        0.0362
     32 H          -2.3479    1.4958    4.0686 H       1  UNL1        0.0510
     33 H           1.6106   -1.0045    2.5978 H       1  UNL1        0.0494
     34 H           0.9777    0.4754    1.7743 H       1  UNL1        0.0097
     35 H           2.1910    1.4966   -0.0559 H       1  UNL1        0.1220
     36 H           4.3914    1.7820   -1.2017 H       1  UNL1        0.1321
     37 H           5.7649   -1.9505    0.5271 H       1  UNL1        0.1406
     38 H           3.5598   -2.2254    1.6700 H       1  UNL1        0.1062
@<TRIPOS>BOND
     1    18    14    1
     2    29    15    1
     3     8     1    1
     4     7     6    2
     5    36    22    1
     6    26    23    1
     7    15    14   ar
     8    15    10   ar
     9     6     1   ar
    10     6     5   ar
    11    22    23   ar
    12    22    21   ar
    13     1     2   ar
    14    14    13   ar
    15    23    24   ar
    16    35    21    1
    17     9     5    1
    18     5     4   ar
    19    21    20   ar
    20     2    10    1
    21     2     3   ar
    22    10    11   ar
    23    24    37    1
    24    24    25   ar
    25    13    28    1
    26    13    12   ar
    27     4     3   ar
    28     3    19    1
    29    20    25   ar
    30    20    19    1
    31    25    38    1
    32    11    12   ar
    33    11    16    1
    34    12    27    1
    35    19    34    1
    36    19    33    1
    37    16    17    1
    38    31    17    1
    39    17    30    1
    40    17    32    1
