@<TRIPOS>MOLECULE
10b.log
 41 43 0 0 0
SMALL
USER_CHARGES
****
Gaussian 16 #p b3lyp/6-311g(d,p) pop=(chelpg,readradii)
@<TRIPOS>ATOM
      1 C          -2.2669   -1.5368   -0.5906 C.ar    1  UNL1       -0.1043
      2 C          -1.4638   -0.7552    0.1969 C.ar    1  UNL1        0.0519
      3 C          -0.3558   -1.3873    0.9106 C.ar    1  UNL1        0.3265
      4 N          -0.1166   -2.6951    0.8190 N.ar    1  UNL1       -0.3997
      5 N          -0.8875   -3.4410    0.0670 N.ar    1  UNL1       -0.1603
      6 C          -1.9987   -2.9845   -0.6906 C.ar    1  UNL1        0.5566
      7 O          -2.6290   -3.8230   -1.3525 O.2     1  UNL1       -0.5626
      8 BR         -3.7078   -0.8501   -1.5540 Br      1  UNL1       -0.0043
      9 H          -0.6495   -4.4174    0.0443 H       1  UNL1        0.3189
     10 C          -1.6829    0.6879    0.3310 C.ar    1  UNL1       -0.0571
     11 C          -2.4728    1.2177    1.3775 C.ar    1  UNL1        0.3421
     12 C          -2.6922    2.5993    1.4711 C.ar    1  UNL1       -0.2673
     13 C          -2.1247    3.4577    0.5346 C.ar    1  UNL1       -0.0796
     14 C          -1.3352    2.9396   -0.4959 C.ar    1  UNL1        0.0184
     15 C          -1.1164    1.5633   -0.6003 C.ar    1  UNL1       -0.0322
     16 O          -2.9718    0.2996    2.2760 O.3     1  UNL1       -0.3560
     17 C          -3.9141    0.7896    3.2262 C.3     1  UNL1        0.0209
     18 CL         -0.6373    3.9882   -1.6352 Cl      1  UNL1       -0.0956
     19 C           0.5440   -0.5584    1.7869 C.3     1  UNL1       -0.1711
     20 C           1.9108   -0.4194    1.2065 C.ar    1  UNL1        0.1999
     21 C           2.2341    0.6926    0.4200 C.ar    1  UNL1       -0.2220
     22 C           3.5173    0.8358   -0.1037 C.ar    1  UNL1       -0.0266
     23 C           4.4830   -0.1380    0.1586 C.ar    1  UNL1       -0.0801
     24 C           4.1704   -1.2526    0.9399 C.ar    1  UNL1       -0.0707
     25 C           2.8863   -1.3907    1.4625 C.ar    1  UNL1       -0.1678
     26 C           5.8819    0.0079   -0.4254 C.3     1  UNL1        0.5906
     27 F           6.2963    1.3063   -0.6010 F       1  UNL1       -0.2160
     28 F           6.8792   -0.5629    0.3283 F       1  UNL1       -0.2178
     29 F           6.0361   -0.5614   -1.6672 F       1  UNL1       -0.2201
     30 H          -3.3120    3.0150    2.2785 H       1  UNL1        0.1587
     31 H          -2.3001    4.5425    0.6092 H       1  UNL1        0.1206
     32 H          -0.5032    1.1594   -1.4225 H       1  UNL1        0.0664
     33 H          -4.2375   -0.1371    3.7656 H       1  UNL1        0.0924
     34 H          -4.7811    1.2721    2.7140 H       1  UNL1        0.0440
     35 H          -3.4221    1.5040    3.9301 H       1  UNL1        0.0562
     36 H           0.6154   -1.0337    2.8050 H       1  UNL1        0.0717
     37 H           0.0813    0.4557    1.9294 H       1  UNL1        0.0335
     38 H           1.4694    1.4576    0.2103 H       1  UNL1        0.1216
     39 H           3.7737    1.7137   -0.7178 H       1  UNL1        0.0972
     40 H           4.9397   -2.0143    1.1436 H       1  UNL1        0.1163
     41 H           2.6351   -2.2710    2.0742 H       1  UNL1        0.1071
@<TRIPOS>BOND
     1    29    26    1
     2    18    14    1
     3     8     1    1
     4    32    15    1
     5     7     6    2
     6    39    22    1
     7     6     1   ar
     8     6     5   ar
     9    27    26    1
    10    15    14   ar
    11    15    10   ar
    12     1     2   ar
    13    14    13   ar
    14    26    23    1
    15    26    28    1
    16    22    23   ar
    17    22    21   ar
    18     9     5    1
    19     5     4   ar
    20    23    24   ar
    21     2    10    1
    22     2     3   ar
    23    38    21    1
    24    10    11   ar
    25    21    20   ar
    26    13    31    1
    27    13    12   ar
    28     4     3   ar
    29     3    19    1
    30    24    40    1
    31    24    25   ar
    32    20    25   ar
    33    20    19    1
    34    11    12   ar
    35    11    16    1
    36    25    41    1
    37    12    30    1
    38    19    37    1
    39    19    36    1
    40    16    17    1
    41    34    17    1
    42    17    33    1
    43    17    35    1
