@<TRIPOS>MOLECULE
MOL
   53    56     1     0     0
SMALL
No Charge or Current Charge


@<TRIPOS>ATOM
      1 C1          -5.2360    -1.0520    -2.0240 c1         1 MOL       0.000000
      2 C2          -3.6250    -1.5200     2.3810 ca         1 MOL       0.000000
      3 C3           2.5730    -3.6410    -0.2300 ca         1 MOL       0.000000
      4 C4           2.1730    -1.3440     0.4500 ca         1 MOL       0.000000
      5 C5          -3.9490    -0.6100     1.3750 ca         1 MOL       0.000000
      6 C6          -2.5750    -2.4200     2.2090 ca         1 MOL       0.000000
      7 C7           1.2510    -3.9640     0.0460 ca         1 MOL       0.000000
      8 C8           0.8460    -1.6520     0.7330 ca         1 MOL       0.000000
      9 C9          -2.1790    -1.4920    -0.0180 ca         1 MOL       0.000000
     10 C10          3.0390    -2.3300    -0.0350 ca         1 MOL       0.000000
     11 C11         -3.2350    -0.5970     0.1720 ca         1 MOL       0.000000
     12 C12          0.3890    -2.9600     0.5280 ca         1 MOL       0.000000
     13 C13         -1.8600    -2.3940     1.0050 ca         1 MOL       0.000000
     14 C14         -1.9850     2.1600    -0.3440 cc         1 MOL       0.000000
     15 C15          0.1850     2.2650    -0.5580 cd         1 MOL       0.000000
     16 C16          2.0460     4.0170     0.5170 cc         1 MOL       0.000000
     17 C17          2.4530     2.9840    -0.2800 cd         1 MOL       0.000000
     18 C18          0.6440     4.2810     0.8530 c          1 MOL       0.000000
     19 C19          4.4420    -2.0370    -0.3410 c          1 MOL       0.000000
     20 C20          3.8990     2.7550    -0.5810 c3         1 MOL       0.000000
     21 C21          6.1530    -0.3900    -0.5030 c3         1 MOL       0.000000
     22 C22         -5.0410     0.2190    -1.3650 c3         1 MOL       0.000000
     23 C23         -3.5680     0.3890    -0.9230 c3         1 MOL       0.000000
     24 N1          -5.4110    -2.0680    -2.5610 n1         1 MOL       0.000000
     25 N2          -0.8730     1.5020    -0.9660 nc         1 MOL       0.000000
     26 N3          -1.6130     3.2620     0.4140 nd         1 MOL       0.000000
     27 N4          -0.2770     3.3400     0.2800 n          1 MOL       0.000000
     28 N5           1.5380     2.1040    -0.8450 na         1 MOL       0.000000
     29 N6          -3.3270     1.7830    -0.5620 nh         1 MOL       0.000000
     30 O1           0.2490     5.2100     1.5630 o          1 MOL       0.000000
     31 O2           5.3340    -2.8250    -0.6660 o          1 MOL       0.000000
     32 O3          -0.8960    -3.3870     0.8190 os         1 MOL       0.000000
     33 O4           4.7810    -0.7060    -0.2560 os         1 MOL       0.000000
     34 H1          -4.1980    -1.5260     3.3200 ha         1 MOL       0.000000
     35 H2           3.2690    -4.4100    -0.6060 ha         1 MOL       0.000000
     36 H3           2.5490    -0.3210     0.6130 ha         1 MOL       0.000000
     37 H4          -4.7730     0.1030     1.5340 ha         1 MOL       0.000000
     38 H5          -2.3110    -3.1460     2.9910 ha         1 MOL       0.000000
     39 H6           0.8710    -4.9850    -0.1010 ha         1 MOL       0.000000
     40 H7           0.1610    -0.8780     1.1100 ha         1 MOL       0.000000
     41 H8          -1.5930    -1.4880    -0.9500 ha         1 MOL       0.000000
     42 H9           2.7680     4.7180     0.9580 ha         1 MOL       0.000000
     43 H10          4.5270     3.4390     0.0410 hc         1 MOL       0.000000
     44 H11          4.1060     2.9630    -1.6610 hc         1 MOL       0.000000
     45 H12          4.1920     1.6960    -0.3570 hc         1 MOL       0.000000
     46 H13          6.2050     0.7140    -0.3390 h1         1 MOL       0.000000
     47 H14          6.4230    -0.6640    -1.5510 h1         1 MOL       0.000000
     48 H15          6.8070    -0.9400     0.2160 h1         1 MOL       0.000000
     49 H16         -5.7270     0.2850    -0.4770 hc         1 MOL       0.000000
     50 H17         -5.3210     1.0420    -2.0820 hc         1 MOL       0.000000
     51 H18         -2.9220     0.1630    -1.8270 h1         1 MOL       0.000000
     52 H19          1.8280     1.3410    -1.4150 hn         1 MOL       0.000000
     53 H20         -3.9250     2.0920     0.1840 hn         1 MOL       0.000000
@<TRIPOS>BOND
     1     1    22 1   
     2     1    24 3   
     3     2     5 ar  
     4     2     6 ar  
     5     2    34 1   
     6     3     7 ar  
     7     3    10 ar  
     8     3    35 1   
     9     4     8 ar  
    10     4    10 ar  
    11     4    36 1   
    12     5    11 ar  
    13     5    37 1   
    14     6    13 ar  
    15     6    38 1   
    16     7    12 ar  
    17     7    39 1   
    18     8    12 ar  
    19     8    40 1   
    20     9    11 ar  
    21     9    13 ar  
    22     9    41 1   
    23    10    19 1   
    24    11    23 1   
    25    12    32 1   
    26    13    32 1   
    27    14    25 1   
    28    14    26 2   
    29    14    29 1   
    30    15    25 2   
    31    15    27 1   
    32    15    28 1   
    33    16    17 2   
    34    16    18 1   
    35    16    42 1   
    36    17    20 1   
    37    17    28 1   
    38    18    27 1   
    39    18    30 2   
    40    19    31 2   
    41    19    33 1   
    42    20    43 1   
    43    20    44 1   
    44    20    45 1   
    45    21    33 1   
    46    21    46 1   
    47    21    47 1   
    48    21    48 1   
    49    22    23 1   
    50    22    49 1   
    51    22    50 1   
    52    23    29 1   
    53    23    51 1   
    54    26    27 1   
    55    28    52 1   
    56    29    53 1   
@<TRIPOS>SUBSTRUCTURE
     1 MOL         1 TEMP              0 ****  ****    0 ROOT
