@<TRIPOS>MOLECULE
MOL
   36    38     1     0     0
SMALL
No Charge or Current Charge


@<TRIPOS>ATOM
      1 C1          -3.6810    -2.4570     1.2060 c1         1 MOL       0.000000
      2 C2          -3.3160     0.7230    -2.2700 ca         1 MOL       0.000000
      3 C3          -2.7250    -0.4120    -1.7190 ca         1 MOL       0.000000
      4 C4          -3.4270     1.8940    -1.5210 ca         1 MOL       0.000000
      5 C5          -2.3390     0.7850     0.3490 ca         1 MOL       0.000000
      6 C6          -2.2390    -0.3870    -0.4070 ca         1 MOL       0.000000
      7 C7          -2.9360     1.9180    -0.2120 ca         1 MOL       0.000000
      8 C8           0.7830    -1.3420    -0.3330 cc         1 MOL       0.000000
      9 C9           2.8020    -0.6080    -0.7310 cd         1 MOL       0.000000
     10 C10          4.5920     0.7650     0.8840 cc         1 MOL       0.000000
     11 C11          4.9330     0.4360    -0.3980 cd         1 MOL       0.000000
     12 C12          3.3000     0.4320     1.4930 c          1 MOL       0.000000
     13 C13          6.2680     0.8030    -0.9620 c3         1 MOL       0.000000
     14 C14         -2.6230    -2.7650     0.2720 c3         1 MOL       0.000000
     15 C15         -1.5930    -1.6100     0.2000 c3         1 MOL       0.000000
     16 N1          -4.5390    -2.2300     1.9570 n1         1 MOL       0.000000
     17 N2           1.7900    -1.2740    -1.3600 nc         1 MOL       0.000000
     18 N3           1.1680    -0.7310     0.8490 nd         1 MOL       0.000000
     19 N4           2.4130    -0.2770     0.6160 n          1 MOL       0.000000
     20 N5           4.0530    -0.2500    -1.2270 na         1 MOL       0.000000
     21 N6          -0.4090    -2.0710    -0.5210 nh         1 MOL       0.000000
     22 O1           2.9690     0.7180     2.6460 o          1 MOL       0.000000
     23 Cl1         -3.0620     3.3420     0.7080 cl         1 MOL       0.000000
     24 H1          -3.7000     0.6980    -3.3010 ha         1 MOL       0.000000
     25 H2          -2.6460    -1.3300    -2.3210 ha         1 MOL       0.000000
     26 H3          -3.8970     2.7890    -1.9570 ha         1 MOL       0.000000
     27 H4          -1.9470     0.8160     1.3790 ha         1 MOL       0.000000
     28 H5           5.2860     1.3080     1.5410 ha         1 MOL       0.000000
     29 H6           6.8680     1.3480    -0.1920 hc         1 MOL       0.000000
     30 H7           6.1500     1.4660    -1.8550 hc         1 MOL       0.000000
     31 H8           6.8320    -0.1140    -1.2680 hc         1 MOL       0.000000
     32 H9          -3.0680    -2.9510    -0.7430 hc         1 MOL       0.000000
     33 H10         -2.1100    -3.7100     0.6080 hc         1 MOL       0.000000
     34 H11         -1.2860    -1.3730     1.2650 h1         1 MOL       0.000000
     35 H12          4.2960    -0.4980    -2.1590 hn         1 MOL       0.000000
     36 H13         -0.5980    -2.2280    -1.4940 hn         1 MOL       0.000000
@<TRIPOS>BOND
     1     1    14 1   
     2     1    16 3   
     3     2     3 ar  
     4     2     4 ar  
     5     2    24 1   
     6     3     6 ar  
     7     3    25 1   
     8     4     7 ar  
     9     4    26 1   
    10     5     6 ar  
    11     5     7 ar  
    12     5    27 1   
    13     6    15 1   
    14     7    23 1   
    15     8    17 1   
    16     8    18 2   
    17     8    21 1   
    18     9    17 2   
    19     9    19 1   
    20     9    20 1   
    21    10    11 2   
    22    10    12 1   
    23    10    28 1   
    24    11    13 1   
    25    11    20 1   
    26    12    19 1   
    27    12    22 2   
    28    13    29 1   
    29    13    30 1   
    30    13    31 1   
    31    14    15 1   
    32    14    32 1   
    33    14    33 1   
    34    15    21 1   
    35    15    34 1   
    36    18    19 1   
    37    20    35 1   
    38    21    36 1   
@<TRIPOS>SUBSTRUCTURE
     1 MOL         1 TEMP              0 ****  ****    0 ROOT
